356
  -OEChem-08052402473D

 26 25  0     0  0  0  0  0  0999 V2000
   -0.6084   -0.4286    0.0387 C   0  0  0  0  0  0  0  0  0  0  0  0
    0.6320    0.4677    0.0288 C   0  0  0  0  0  0  0  0  0  0  0  0
   -1.9251    0.3534    0.0307 C   0  0  0  0  0  0  0  0  0  0  0  0
    1.9162   -0.3646    0.0134 C   0  0  0  0  0  0  0  0  0  0  0  0
   -3.1635   -0.5416   -0.0336 C   0  0  0  0  0  0  0  0  0  0  0  0
    3.1566    0.5275   -0.0351 C   0  0  0  0  0  0  0  0  0  0  0  0
   -4.4429    0.2810   -0.0264 C   0  0  0  0  0  0  0  0  0  0  0  0
    4.4352   -0.2948   -0.0166 C   0  0  0  0  0  0  0  0  0  0  0  0
   -0.5822   -1.0768    0.9233 H   0  0  0  0  0  0  0  0  0  0  0  0
   -0.5814   -1.0883   -0.8377 H   0  0  0  0  0  0  0  0  0  0  0  0
    0.6221    1.1178    0.9119 H   0  0  0  0  0  0  0  0  0  0  0  0
    0.6044    1.1188   -0.8533 H   0  0  0  0  0  0  0  0  0  0  0  0
   -1.9307    1.0354   -0.8287 H   0  0  0  0  0  0  0  0  0  0  0  0
   -1.9737    0.9790    0.9306 H   0  0  0  0  0  0  0  0  0  0  0  0
    1.9126   -1.0331   -0.8562 H   0  0  0  0  0  0  0  0  0  0  0  0
    1.9522   -0.9984    0.9079 H   0  0  0  0  0  0  0  0  0  0  0  0
   -3.1698   -1.2275    0.8214 H   0  0  0  0  0  0  0  0  0  0  0  0
   -3.1320   -1.1542   -0.9419 H   0  0  0  0  0  0  0  0  0  0  0  0
    3.1575    1.2109    0.8221 H   0  0  0  0  0  0  0  0  0  0  0  0
    3.1369    1.1437   -0.9415 H   0  0  0  0  0  0  0  0  0  0  0  0
   -4.5183    0.8815    0.8858 H   0  0  0  0  0  0  0  0  0  0  0  0
   -4.4800    0.9564   -0.8871 H   0  0  0  0  0  0  0  0  0  0  0  0
   -5.3163   -0.3770   -0.0729 H   0  0  0  0  0  0  0  0  0  0  0  0
    5.3093    0.3628   -0.0530 H   0  0  0  0  0  0  0  0  0  0  0  0
    4.4807   -0.9684   -0.8784 H   0  0  0  0  0  0  0  0  0  0  0  0
    4.5011   -0.8974    0.8948 H   0  0  0  0  0  0  0  0  0  0  0  0
  1  2  1  0  0  0  0
  1  3  1  0  0  0  0
  1  9  1  0  0  0  0
  1 10  1  0  0  0  0
  2  4  1  0  0  0  0
  2 11  1  0  0  0  0
  2 12  1  0  0  0  0
  3  5  1  0  0  0  0
  3 13  1  0  0  0  0
  3 14  1  0  0  0  0
  4  6  1  0  0  0  0
  4 15  1  0  0  0  0
  4 16  1  0  0  0  0
  5  7  1  0  0  0  0
  5 17  1  0  0  0  0
  5 18  1  0  0  0  0
  6  8  1  0  0  0  0
  6 19  1  0  0  0  0
  6 20  1  0  0  0  0
  7 21  1  0  0  0  0
  7 22  1  0  0  0  0
  7 23  1  0  0  0  0
  8 24  1  0  0  0  0
  8 25  1  0  0  0  0
  8 26  1  0  0  0  0
M  END