Propane
  -OEChem-08052400053D

 11 10  0     0  0  0  0  0  0999 V2000
    0.0000   -0.5689    0.0000 C   0  0  0  0  0  0  0  0  0  0  0  0
   -1.2571    0.2844    0.0000 C   0  0  0  0  0  0  0  0  0  0  0  0
    1.2571    0.2845    0.0000 C   0  0  0  0  0  0  0  0  0  0  0  0
    0.0000   -1.2183    0.8824 H   0  0  0  0  0  0  0  0  0  0  0  0
    0.0000   -1.2183   -0.8824 H   0  0  0  0  0  0  0  0  0  0  0  0
   -1.2969    0.9244    0.8873 H   0  0  0  0  0  0  0  0  0  0  0  0
   -1.2967    0.9245   -0.8872 H   0  0  0  0  0  0  0  0  0  0  0  0
   -2.1475   -0.3520   -0.0001 H   0  0  0  0  0  0  0  0  0  0  0  0
    2.1475   -0.3520    0.0000 H   0  0  0  0  0  0  0  0  0  0  0  0
    1.2968    0.9245    0.8872 H   0  0  0  0  0  0  0  0  0  0  0  0
    1.2968    0.9245   -0.8872 H   0  0  0  0  0  0  0  0  0  0  0  0
  1  2  1  0  0  0  0
  1  3  1  0  0  0  0
  1  4  1  0  0  0  0
  1  5  1  0  0  0  0
  2  6  1  0  0  0  0
  2  7  1  0  0  0  0
  2  8  1  0  0  0  0
  3  9  1  0  0  0  0
  3 10  1  0  0  0  0
  3 11  1  0  0  0  0
M  END
